<additional>


	<edgeData id="output" file="OUTPUT_FILE" freq="60.00"/>
</additional>      