<routes>

<vTypeDistribution id="typedist1">
    <vType id="HumanVehicle"      carFollowModel="IDM" accel="3.5" decel="4.5" emergencyDecel="8" sigma="0.5" tau="0.9" minGap="1.5" length="5"  delta="4" maxSpeed="13.89" probability="0.4" laneChangeModel="LC2013" lcAssertive="1.3" color="0,128,0"/>
    <vType id="CAV"               carFollowModel="IDM" accel="3.8" decel="4.5" emergencyDecel="8" sigma="0.0" tau="0.5" minGap="0.5" length="5"  delta="4" maxSpeed="13.89" probability="0.6" laneChangeModel="LC2013" lcAssertive="0.7" color="0,0,255"/>
		

</vTypeDistribution>

																			      
<flow type ="typedist1"   id="0"          from ="6" to ="1"   vehsPerHour="1"       begin="0"         end="300"       departPos="base"   departSpeed="max"   departLane="best"/> 
<flow type ="typedist1"   id="1"          from ="6" to ="3"   vehsPerHour="1"       begin="0"         end="300"       departPos="base"   departSpeed="max"   departLane="best"/> 
<flow type ="typedist1"   id="2"          from ="6" to ="5"   vehsPerHour="1"       begin="0"         end="300"       departPos="base"   departSpeed="max"   departLane="best"/> 
<flow type ="typedist1"   id="3"          from ="6" to ="7"   vehsPerHour="1"       begin="0"         end="300"       departPos="base"   departSpeed="max"   departLane="best"/> 
<flow type ="typedist1"   id="4"          from ="8" to ="1"   vehsPerHour="1"       begin="0"         end="300"       departPos="base"   departSpeed="max"   departLane="best"/> 
<flow type ="typedist1"   id="5"          from ="8" to ="3"   vehsPerHour="1"       begin="0"         end="300"       departPos="base"   departSpeed="max"   departLane="best"/> 
<flow type ="typedist1"   id="6"          from ="8" to ="5"   vehsPerHour="1"       begin="0"         end="300"       departPos="base"   departSpeed="max"   departLane="best"/> 
<flow type ="typedist1"   id="7"          from ="8" to ="7"   vehsPerHour="1"       begin="0"         end="300"       departPos="base"   departSpeed="max"   departLane="best"/> 
<flow type ="typedist1"   id="8"          from ="2" to ="1"   vehsPerHour="1"       begin="0"         end="300"       departPos="base"   departSpeed="max"   departLane="best"/> 
<flow type ="typedist1"   id="9"          from ="2" to ="3"   vehsPerHour="1"       begin="0"         end="300"       departPos="base"   departSpeed="max"   departLane="best"/> 
<flow type ="typedist1"   id="10"         from ="2" to ="5"   vehsPerHour="1"       begin="0"         end="300"       departPos="base"   departSpeed="max"   departLane="best"/> 
<flow type ="typedist1"   id="11"         from ="2" to ="7"   vehsPerHour="1"       begin="0"         end="300"       departPos="base"   departSpeed="max"   departLane="best"/> 
<flow type ="typedist1"   id="12"         from ="4" to ="1"   vehsPerHour="1"       begin="0"         end="300"       departPos="base"   departSpeed="max"   departLane="best"/> 
<flow type ="typedist1"   id="13"         from ="4" to ="3"   vehsPerHour="1"       begin="0"         end="300"       departPos="base"   departSpeed="max"   departLane="best"/> 
<flow type ="typedist1"   id="14"         from ="4" to ="5"   vehsPerHour="1"       begin="0"         end="300"       departPos="base"   departSpeed="max"   departLane="best"/> 
<flow type ="typedist1"   id="15"         from ="4" to ="7"   vehsPerHour="1"       begin="0"         end="300"       departPos="base"   departSpeed="max"   departLane="best"/>
<flow type ="typedist1"   id="16"         from ="6" to ="1"   vehsPerHour="11"      begin="300"       end="600"       departPos="base"   departSpeed="max"   departLane="best"/> 
<flow type ="typedist1"   id="17"         from ="6" to ="3"   vehsPerHour="11"      begin="300"       end="600"       departPos="base"   departSpeed="max"   departLane="best"/> 
<flow type ="typedist1"   id="18"         from ="6" to ="5"   vehsPerHour="11"      begin="300"       end="600"       departPos="base"   departSpeed="max"   departLane="best"/> 
<flow type ="typedist1"   id="19"         from ="6" to ="7"   vehsPerHour="11"      begin="300"       end="600"       departPos="base"   departSpeed="max"   departLane="best"/> 
<flow type ="typedist1"   id="20"         from ="8" to ="1"    vehsPerHour="11"     begin="300"       end="600"       departPos="base"   departSpeed="max"   departLane="best"/> 
<flow type ="typedist1"   id="21"         from ="8" to ="3"   vehsPerHour="11"      begin="300"       end="600"       departPos="base"   departSpeed="max"   departLane="best"/> 
<flow type ="typedist1"   id="22"         from ="8" to ="5"   vehsPerHour="11"      begin="300"       end="600"       departPos="base"   departSpeed="max"   departLane="best"/> 
<flow type ="typedist1"   id="23"         from ="8" to ="7"   vehsPerHour="11"      begin="300"       end="600"       departPos="base"   departSpeed="max"   departLane="best"/> 
<flow type ="typedist1"   id="24"         from ="2" to ="1"    vehsPerHour="11"     begin="300"       end="600"       departPos="base"   departSpeed="max"   departLane="best"/> 
<flow type ="typedist1"   id="25"         from ="2" to ="3"   vehsPerHour="11"      begin="300"       end="600"       departPos="base"   departSpeed="max"   departLane="best"/> 
<flow type ="typedist1"   id="26"         from ="2" to ="5"   vehsPerHour="11"      begin="300"       end="600"       departPos="base"   departSpeed="max"   departLane="best"/> 
<flow type ="typedist1"   id="27"         from ="2" to ="7"   vehsPerHour="11"      begin="300"       end="600"       departPos="base"   departSpeed="max"   departLane="best"/> 
<flow type ="typedist1"   id="28"         from ="4" to ="1"    vehsPerHour="11"     begin="300"       end="600"       departPos="base"   departSpeed="max"   departLane="best"/> 
<flow type ="typedist1"   id="29"         from ="4" to ="3"   vehsPerHour="11"      begin="300"       end="600"       departPos="base"   departSpeed="max"   departLane="best"/> 
<flow type ="typedist1"   id="30"         from ="4" to ="5"   vehsPerHour="11"      begin="300"       end="600"       departPos="base"   departSpeed="max"   departLane="best"/> 
<flow type ="typedist1"   id="31"         from ="4" to ="7"   vehsPerHour="11"      begin="300"       end="600"       departPos="base"   departSpeed="max"   departLane="best"/> 
<flow type ="typedist1"   id="32"         from ="6" to ="1"    vehsPerHour="21"     begin="600"       end="900"       departPos="base"   departSpeed="max"   departLane="best"/> 
<flow type ="typedist1"   id="33"         from ="6" to ="3"   vehsPerHour="21"      begin="600"       end="900"       departPos="base"   departSpeed="max"   departLane="best"/> 
<flow type ="typedist1"   id="34"         from ="6" to ="5"   vehsPerHour="21"      begin="600"       end="900"       departPos="base"   departSpeed="max"   departLane="best"/> 
<flow type ="typedist1"   id="35"         from ="6" to ="7"   vehsPerHour="21"      begin="600"       end="900"       departPos="base"   departSpeed="max"   departLane="best"/> 
<flow type ="typedist1"   id="36"         from ="8" to ="1"    vehsPerHour="21"     begin="600"      end="900"       departPos="base"   departSpeed="max"   departLane="best"/> 
<flow type ="typedist1"   id="37"         from ="8" to ="3"   vehsPerHour="21"      begin="600"       end="900"       departPos="base"   departSpeed="max"   departLane="best"/> 
<flow type ="typedist1"   id="38"         from ="8" to ="5"   vehsPerHour="21"      begin="600"       end="900"       departPos="base"   departSpeed="max"   departLane="best"/> 
<flow type ="typedist1"   id="39"         from ="8" to ="7"   vehsPerHour="21"      begin="600"       end="900"       departPos="base"   departSpeed="max"   departLane="best"/> 
<flow type ="typedist1"   id="40"         from ="2" to ="1"    vehsPerHour="21"     begin="600"      end="900"       departPos="base"   departSpeed="max"   departLane="best"/> 
<flow type ="typedist1"   id="41"         from ="2" to ="3"   vehsPerHour="21"      begin="600"       end="900"       departPos="base"   departSpeed="max"   departLane="best"/> 
<flow type ="typedist1"   id="42"         from ="2" to ="5"   vehsPerHour="21"      begin="600"       end="900"       departPos="base"   departSpeed="max"   departLane="best"/> 
<flow type ="typedist1"   id="43"         from ="2" to ="7"   vehsPerHour="21"      begin="600"       end="900"       departPos="base"   departSpeed="max"   departLane="best"/> 
<flow type ="typedist1"   id="44"         from ="4" to ="1"    vehsPerHour="21"     begin="600"      end="900"       departPos="base"   departSpeed="max"   departLane="best"/> 
<flow type ="typedist1"   id="45"         from ="4" to ="3"   vehsPerHour="21"      begin="600"       end="900"       departPos="base"   departSpeed="max"   departLane="best"/> 
<flow type ="typedist1"   id="46"         from ="4" to ="5"   vehsPerHour="21"      begin="600"       end="900"       departPos="base"   departSpeed="max"   departLane="best"/> 
<flow type ="typedist1"   id="47"         from ="4" to ="7"   vehsPerHour="21"      begin="600"       end="900"       departPos="base"   departSpeed="max"   departLane="best"/> 
<flow type ="typedist1"   id="48"         from ="6" to ="1"    vehsPerHour="31"      begin="900"       end="1200"      departPos="base"   departSpeed="max"   departLane="best"/> 
<flow type ="typedist1"   id="49"         from ="6" to ="3"   vehsPerHour="31"      begin="900"       end="1200"      departPos="base"   departSpeed="max"   departLane="best"/> 
<flow type ="typedist1"   id="50"         from ="6" to ="5"   vehsPerHour="31"      begin="900"       end="1200"      departPos="base"   departSpeed="max"   departLane="best"/> 
<flow type ="typedist1"   id="51"         from ="6" to ="7"   vehsPerHour="31"      begin="900"       end="1200"      departPos="base"   departSpeed="max"   departLane="best"/> 
<flow type ="typedist1"   id="52"         from ="8" to ="1"    vehsPerHour="31"      begin="900"       end="1200"      departPos="base"   departSpeed="max"   departLane="best"/> 
<flow type ="typedist1"   id="53"         from ="8" to ="3"   vehsPerHour="31"      begin="900"       end="1200"      departPos="base"   departSpeed="max"   departLane="best"/> 
<flow type ="typedist1"   id="54"         from ="8" to ="5"   vehsPerHour="31"      begin="900"       end="1200"      departPos="base"   departSpeed="max"   departLane="best"/> 
<flow type ="typedist1"   id="55"         from ="8" to ="7"   vehsPerHour="31"      begin="900"       end="1200"      departPos="base"   departSpeed="max"   departLane="best"/> 
<flow type ="typedist1"   id="56"         from ="2" to ="1"    vehsPerHour="31"      begin="900"       end="1200"      departPos="base"   departSpeed="max"   departLane="best"/> 
<flow type ="typedist1"   id="57"         from ="2" to ="3"   vehsPerHour="31"      begin="900"       end="1200"      departPos="base"   departSpeed="max"   departLane="best"/> 
<flow type ="typedist1"   id="58"         from ="2" to ="5"   vehsPerHour="31"      begin="900"       end="1200"      departPos="base"   departSpeed="max"   departLane="best"/> 
<flow type ="typedist1"   id="59"         from ="2" to ="7"   vehsPerHour="31"      begin="900"       end="1200"      departPos="base"   departSpeed="max"   departLane="best"/> 
<flow type ="typedist1"   id="60"         from ="4" to ="1"    vehsPerHour="31"      begin="900"       end="1200"      departPos="base"   departSpeed="max"   departLane="best"/> 
<flow type ="typedist1"   id="61"         from ="4" to ="3"   vehsPerHour="31"      begin="900"       end="1200"      departPos="base"   departSpeed="max"   departLane="best"/> 
<flow type ="typedist1"   id="62"         from ="4" to ="5"   vehsPerHour="31"      begin="900"       end="1200"      departPos="base"   departSpeed="max"   departLane="best"/> 
<flow type ="typedist1"   id="63"         from ="4" to ="7"   vehsPerHour="31"      begin="900"       end="1200"      departPos="base"   departSpeed="max"   departLane="best"/> 
<flow type ="typedist1"   id="64"         from ="6" to ="1"    vehsPerHour="41"      begin="1200"      end="1500"      departPos="base"   departSpeed="max"   departLane="best"/> 
<flow type ="typedist1"   id="65"         from ="6" to ="3"   vehsPerHour="41"      begin="1200"      end="1500"      departPos="base"   departSpeed="max"   departLane="best"/> 
<flow type ="typedist1"   id="66"         from ="6" to ="5"   vehsPerHour="41"      begin="1200"      end="1500"      departPos="base"   departSpeed="max"   departLane="best"/> 
<flow type ="typedist1"   id="67"         from ="6" to ="7"   vehsPerHour="41"      begin="1200"      end="1500"      departPos="base"   departSpeed="max"   departLane="best"/> 
<flow type ="typedist1"   id="68"         from ="8" to ="1"    vehsPerHour="41"      begin="1200"      end="1500"      departPos="base"   departSpeed="max"   departLane="best"/> 
<flow type ="typedist1"   id="69"         from ="8" to ="3"   vehsPerHour="41"      begin="1200"      end="1500"      departPos="base"   departSpeed="max"   departLane="best"/> 
<flow type ="typedist1"   id="70"         from ="8" to ="5"   vehsPerHour="41"      begin="1200"      end="1500"      departPos="base"   departSpeed="max"   departLane="best"/> 
<flow type ="typedist1"   id="71"         from ="8" to ="7"   vehsPerHour="41"      begin="1200"      end="1500"      departPos="base"   departSpeed="max"   departLane="best"/> 
<flow type ="typedist1"   id="72"         from ="2" to ="1"    vehsPerHour="41"      begin="1200"      end="1500"      departPos="base"   departSpeed="max"   departLane="best"/> 
<flow type ="typedist1"   id="73"         from ="2" to ="3"   vehsPerHour="41"      begin="1200"      end="1500"      departPos="base"   departSpeed="max"   departLane="best"/> 
<flow type ="typedist1"   id="74"         from ="2" to ="5"   vehsPerHour="41"      begin="1200"      end="1500"      departPos="base"   departSpeed="max"   departLane="best"/> 
<flow type ="typedist1"   id="75"         from ="2" to ="7"   vehsPerHour="41"      begin="1200"      end="1500"      departPos="base"   departSpeed="max"   departLane="best"/> 
<flow type ="typedist1"   id="76"         from ="4" to ="1"    vehsPerHour="41"      begin="1200"      end="1500"      departPos="base"   departSpeed="max"   departLane="best"/> 
<flow type ="typedist1"   id="77"         from ="4" to ="3"   vehsPerHour="41"      begin="1200"      end="1500"      departPos="base"   departSpeed="max"   departLane="best"/> 
<flow type ="typedist1"   id="78"         from ="4" to ="5"   vehsPerHour="41"      begin="1200"      end="1500"      departPos="base"   departSpeed="max"   departLane="best"/> 
<flow type ="typedist1"   id="79"         from ="4" to ="7"   vehsPerHour="41"      begin="1200"      end="1500"      departPos="base"   departSpeed="max"   departLane="best"/> 
<flow type ="typedist1"   id="80"         from ="6" to ="1"    vehsPerHour="51"      begin="1500"      end="1800"      departPos="base"   departSpeed="max"   departLane="best"/> 
<flow type ="typedist1"   id="81"         from ="6" to ="3"   vehsPerHour="51"      begin="1500"      end="1800"      departPos="base"   departSpeed="max"   departLane="best"/> 
<flow type ="typedist1"   id="82"         from ="6" to ="5"   vehsPerHour="51"      begin="1500"      end="1800"      departPos="base"   departSpeed="max"   departLane="best"/> 
<flow type ="typedist1"   id="83"         from ="6" to ="7"   vehsPerHour="51"      begin="1500"      end="1800"      departPos="base"   departSpeed="max"   departLane="best"/> 
<flow type ="typedist1"   id="84"         from ="8" to ="1"    vehsPerHour="51"      begin="1500"      end="1800"      departPos="base"   departSpeed="max"   departLane="best"/> 
<flow type ="typedist1"   id="85"         from ="8" to ="3"   vehsPerHour="51"      begin="1500"      end="1800"      departPos="base"   departSpeed="max"   departLane="best"/> 
<flow type ="typedist1"   id="86"         from ="8" to ="5"   vehsPerHour="51"      begin="1500"      end="1800"      departPos="base"   departSpeed="max"   departLane="best"/> 
<flow type ="typedist1"   id="87"         from ="8" to ="7"   vehsPerHour="51"      begin="1500"      end="1800"      departPos="base"   departSpeed="max"   departLane="best"/> 
<flow type ="typedist1"   id="88"         from ="2" to ="1"    vehsPerHour="51"      begin="1500"      end="1800"      departPos="base"   departSpeed="max"   departLane="best"/> 
<flow type ="typedist1"   id="89"         from ="2" to ="3"   vehsPerHour="51"      begin="1500"      end="1800"      departPos="base"   departSpeed="max"   departLane="best"/> 
<flow type ="typedist1"   id="90"         from ="2" to ="5"   vehsPerHour="51"      begin="1500"      end="1800"      departPos="base"   departSpeed="max"   departLane="best"/> 
<flow type ="typedist1"   id="91"         from ="2" to ="7"   vehsPerHour="51"      begin="1500"      end="1800"      departPos="base"   departSpeed="max"   departLane="best"/> 
<flow type ="typedist1"   id="92"         from ="4" to ="1"    vehsPerHour="51"      begin="1500"      end="1800"      departPos="base"   departSpeed="max"   departLane="best"/> 
<flow type ="typedist1"   id="93"         from ="4" to ="3"   vehsPerHour="51"      begin="1500"      end="1800"      departPos="base"   departSpeed="max"   departLane="best"/> 
<flow type ="typedist1"   id="94"         from ="4" to ="5"   vehsPerHour="51"      begin="1500"      end="1800"      departPos="base"   departSpeed="max"   departLane="best"/> 
<flow type ="typedist1"   id="95"         from ="4" to ="7"   vehsPerHour="51"      begin="1500"      end="1800"      departPos="base"   departSpeed="max"   departLane="best"/> 
<flow type ="typedist1"   id="96"         from ="6" to ="1"    vehsPerHour="61"      begin="1800"      end="2100"      departPos="base"   departSpeed="max"   departLane="best"/> 
<flow type ="typedist1"   id="97"         from ="6" to ="3"   vehsPerHour="61"      begin="1800"      end="2100"      departPos="base"   departSpeed="max"   departLane="best"/> 
<flow type ="typedist1"   id="98"         from ="6" to ="5"   vehsPerHour="61"      begin="1800"      end="2100"      departPos="base"   departSpeed="max"   departLane="best"/> 
<flow type ="typedist1"   id="99"         from ="6" to ="7"   vehsPerHour="61"      begin="1800"      end="2100"      departPos="base"   departSpeed="max"   departLane="best"/> 
<flow type ="typedist1"   id="100"        from ="8" to ="1"    vehsPerHour="61"      begin="1800"      end="2100"      departPos="base"   departSpeed="max"   departLane="best"/> 
<flow type ="typedist1"   id="101"        from ="8" to ="3"   vehsPerHour="61"      begin="1800"      end="2100"      departPos="base"   departSpeed="max"   departLane="best"/> 
<flow type ="typedist1"   id="102"        from ="8" to ="5"   vehsPerHour="61"      begin="1800"      end="2100"      departPos="base"   departSpeed="max"   departLane="best"/> 
<flow type ="typedist1"   id="103"        from ="8" to ="7"   vehsPerHour="61"      begin="1800"      end="2100"      departPos="base"   departSpeed="max"   departLane="best"/> 
<flow type ="typedist1"   id="104"        from ="2" to ="1"    vehsPerHour="61"      begin="1800"      end="2100"      departPos="base"   departSpeed="max"   departLane="best"/> 
<flow type ="typedist1"   id="105"        from ="2" to ="3"   vehsPerHour="61"      begin="1800"      end="2100"      departPos="base"   departSpeed="max"   departLane="best"/> 
<flow type ="typedist1"   id="106"        from ="2" to ="5"   vehsPerHour="61"      begin="1800"      end="2100"      departPos="base"   departSpeed="max"   departLane="best"/> 
<flow type ="typedist1"   id="107"        from ="2" to ="7"   vehsPerHour="61"      begin="1800"      end="2100"      departPos="base"   departSpeed="max"   departLane="best"/> 
<flow type ="typedist1"   id="108"        from ="4" to ="1"    vehsPerHour="61"      begin="1800"      end="2100"      departPos="base"   departSpeed="max"   departLane="best"/> 
<flow type ="typedist1"   id="109"        from ="4" to ="3"   vehsPerHour="61"      begin="1800"      end="2100"      departPos="base"   departSpeed="max"   departLane="best"/> 
<flow type ="typedist1"   id="110"        from ="4" to ="5"   vehsPerHour="61"      begin="1800"      end="2100"      departPos="base"   departSpeed="max"   departLane="best"/> 
<flow type ="typedist1"   id="111"        from ="4" to ="7"   vehsPerHour="61"      begin="1800"      end="2100"      departPos="base"   departSpeed="max"   departLane="best"/> 
<flow type ="typedist1"   id="112"        from ="6" to ="1"    vehsPerHour="71"      begin="2100"      end="2400"      departPos="base"   departSpeed="max"   departLane="best"/> 
<flow type ="typedist1"   id="113"        from ="6" to ="3"   vehsPerHour="71"      begin="2100"      end="2400"      departPos="base"   departSpeed="max"   departLane="best"/> 
<flow type ="typedist1"   id="114"        from ="6" to ="5"   vehsPerHour="71"      begin="2100"      end="2400"      departPos="base"   departSpeed="max"   departLane="best"/> 
<flow type ="typedist1"   id="115"        from ="6" to ="7"   vehsPerHour="71"      begin="2100"      end="2400"      departPos="base"   departSpeed="max"   departLane="best"/> 
<flow type ="typedist1"   id="116"        from ="8" to ="1"    vehsPerHour="71"      begin="2100"      end="2400"      departPos="base"   departSpeed="max"   departLane="best"/> 
<flow type ="typedist1"   id="117"        from ="8" to ="3"   vehsPerHour="71"      begin="2100"      end="2400"      departPos="base"   departSpeed="max"   departLane="best"/> 
<flow type ="typedist1"   id="118"        from ="8" to ="5"   vehsPerHour="71"      begin="2100"      end="2400"      departPos="base"   departSpeed="max"   departLane="best"/> 
<flow type ="typedist1"   id="119"        from ="8" to ="7"   vehsPerHour="71"      begin="2100"      end="2400"      departPos="base"   departSpeed="max"   departLane="best"/> 
<flow type ="typedist1"   id="120"        from ="2" to ="1"    vehsPerHour="71"      begin="2100"      end="2400"      departPos="base"   departSpeed="max"   departLane="best"/> 
<flow type ="typedist1"   id="121"        from ="2" to ="3"   vehsPerHour="71"      begin="2100"      end="2400"      departPos="base"   departSpeed="max"   departLane="best"/> 
<flow type ="typedist1"   id="122"        from ="2" to ="5"   vehsPerHour="71"      begin="2100"      end="2400"      departPos="base"   departSpeed="max"   departLane="best"/> 
<flow type ="typedist1"   id="123"        from ="2" to ="7"   vehsPerHour="71"      begin="2100"      end="2400"      departPos="base"   departSpeed="max"   departLane="best"/> 
<flow type ="typedist1"   id="124"        from ="4" to ="1"    vehsPerHour="71"      begin="2100"      end="2400"      departPos="base"   departSpeed="max"   departLane="best"/> 
<flow type ="typedist1"   id="125"        from ="4" to ="3"   vehsPerHour="71"      begin="2100"      end="2400"      departPos="base"   departSpeed="max"   departLane="best"/> 
<flow type ="typedist1"   id="126"        from ="4" to ="5"   vehsPerHour="71"      begin="2100"      end="2400"      departPos="base"   departSpeed="max"   departLane="best"/> 
<flow type ="typedist1"   id="127"        from ="4" to ="7"   vehsPerHour="71"      begin="2100"      end="2400"      departPos="base"   departSpeed="max"   departLane="best"/> 
<flow type ="typedist1"   id="128"        from ="6" to ="1"    vehsPerHour="81"      begin="2400"      end="2700"      departPos="base"   departSpeed="max"   departLane="best"/> 
<flow type ="typedist1"   id="129"        from ="6" to ="3"   vehsPerHour="81"      begin="2400"      end="2700"      departPos="base"   departSpeed="max"   departLane="best"/> 
<flow type ="typedist1"   id="130"        from ="6" to ="5"   vehsPerHour="81"      begin="2400"      end="2700"      departPos="base"   departSpeed="max"   departLane="best"/> 
<flow type ="typedist1"   id="131"        from ="6" to ="7"   vehsPerHour="81"      begin="2400"      end="2700"      departPos="base"   departSpeed="max"   departLane="best"/> 
<flow type ="typedist1"   id="132"        from ="8" to ="1"    vehsPerHour="81"      begin="2400"      end="2700"      departPos="base"   departSpeed="max"   departLane="best"/> 
<flow type ="typedist1"   id="133"        from ="8" to ="3"   vehsPerHour="81"      begin="2400"      end="2700"      departPos="base"   departSpeed="max"   departLane="best"/> 
<flow type ="typedist1"   id="134"        from ="8" to ="5"   vehsPerHour="81"      begin="2400"      end="2700"      departPos="base"   departSpeed="max"   departLane="best"/> 
<flow type ="typedist1"   id="135"        from ="8" to ="7"   vehsPerHour="81"      begin="2400"      end="2700"      departPos="base"   departSpeed="max"   departLane="best"/> 
<flow type ="typedist1"   id="136"        from ="2" to ="1"    vehsPerHour="81"      begin="2400"      end="2700"      departPos="base"   departSpeed="max"   departLane="best"/> 
<flow type ="typedist1"   id="137"        from ="2" to ="3"   vehsPerHour="81"      begin="2400"      end="2700"      departPos="base"   departSpeed="max"   departLane="best"/> 
<flow type ="typedist1"   id="138"        from ="2" to ="5"   vehsPerHour="81"      begin="2400"      end="2700"      departPos="base"   departSpeed="max"   departLane="best"/> 
<flow type ="typedist1"   id="139"        from ="2" to ="7"   vehsPerHour="81"      begin="2400"      end="2700"      departPos="base"   departSpeed="max"   departLane="best"/> 
<flow type ="typedist1"   id="140"        from ="4" to ="1"    vehsPerHour="81"      begin="2400"      end="2700"      departPos="base"   departSpeed="max"   departLane="best"/> 
<flow type ="typedist1"   id="141"        from ="4" to ="3"   vehsPerHour="81"      begin="2400"      end="2700"      departPos="base"   departSpeed="max"   departLane="best"/> 
<flow type ="typedist1"   id="142"        from ="4" to ="5"   vehsPerHour="81"      begin="2400"      end="2700"      departPos="base"   departSpeed="max"   departLane="best"/> 
<flow type ="typedist1"   id="143"        from ="4" to ="7"   vehsPerHour="81"      begin="2400"      end="2700"      departPos="base"   departSpeed="max"   departLane="best"/> 
<flow type ="typedist1"   id="144"        from ="6" to ="1"    vehsPerHour="91"      begin="2700"      end="3000"      departPos="base"   departSpeed="max"   departLane="best"/> 
<flow type ="typedist1"   id="145"        from ="6" to ="3"   vehsPerHour="91"      begin="2700"      end="3000"      departPos="base"   departSpeed="max"   departLane="best"/> 
<flow type ="typedist1"   id="146"        from ="6" to ="5"   vehsPerHour="91"      begin="2700"      end="3000"      departPos="base"   departSpeed="max"   departLane="best"/> 
<flow type ="typedist1"   id="147"        from ="6" to ="7"   vehsPerHour="91"      begin="2700"      end="3000"      departPos="base"   departSpeed="max"   departLane="best"/> 
<flow type ="typedist1"   id="148"        from ="8" to ="1"    vehsPerHour="91"      begin="2700"      end="3000"      departPos="base"   departSpeed="max"   departLane="best"/> 
<flow type ="typedist1"   id="149"        from ="8" to ="3"   vehsPerHour="91"      begin="2700"      end="3000"      departPos="base"   departSpeed="max"   departLane="best"/> 
<flow type ="typedist1"   id="150"        from ="8" to ="5"   vehsPerHour="91"      begin="2700"      end="3000"      departPos="base"   departSpeed="max"   departLane="best"/> 
<flow type ="typedist1"   id="151"        from ="8" to ="7"   vehsPerHour="91"      begin="2700"      end="3000"      departPos="base"   departSpeed="max"   departLane="best"/> 
<flow type ="typedist1"   id="152"        from ="2" to ="1"    vehsPerHour="91"      begin="2700"      end="3000"      departPos="base"   departSpeed="max"   departLane="best"/> 
<flow type ="typedist1"   id="153"        from ="2" to ="3"   vehsPerHour="91"      begin="2700"      end="3000"      departPos="base"   departSpeed="max"   departLane="best"/> 
<flow type ="typedist1"   id="154"        from ="2" to ="5"   vehsPerHour="91"      begin="2700"      end="3000"      departPos="base"   departSpeed="max"   departLane="best"/> 
<flow type ="typedist1"   id="155"        from ="2" to ="7"   vehsPerHour="91"      begin="2700"      end="3000"      departPos="base"   departSpeed="max"   departLane="best"/> 
<flow type ="typedist1"   id="156"        from ="4" to ="1"    vehsPerHour="91"      begin="2700"      end="3000"      departPos="base"   departSpeed="max"   departLane="best"/> 
<flow type ="typedist1"   id="157"        from ="4" to ="3"   vehsPerHour="91"      begin="2700"      end="3000"      departPos="base"   departSpeed="max"   departLane="best"/> 
<flow type ="typedist1"   id="158"        from ="4" to ="5"   vehsPerHour="91"      begin="2700"      end="3000"      departPos="base"   departSpeed="max"   departLane="best"/> 
<flow type ="typedist1"   id="159"        from ="4" to ="7"   vehsPerHour="91"      begin="2700"      end="3000"      departPos="base"   departSpeed="max"   departLane="best"/> 
<flow type ="typedist1"   id="160"        from ="6" to ="1"    vehsPerHour="101"     begin="3000"      end="3300"      departPos="base"   departSpeed="max"   departLane="best"/> 
<flow type ="typedist1"   id="161"        from ="6" to ="3"   vehsPerHour="101"     begin="3000"      end="3300"      departPos="base"   departSpeed="max"   departLane="best"/> 
<flow type ="typedist1"   id="162"        from ="6" to ="5"   vehsPerHour="101"     begin="3000"      end="3300"      departPos="base"   departSpeed="max"   departLane="best"/> 
<flow type ="typedist1"   id="163"        from ="6" to ="7"   vehsPerHour="101"     begin="3000"      end="3300"      departPos="base"   departSpeed="max"   departLane="best"/> 